Version 4
SHEET 1 3448 2100
WIRE 656 224 640 224
WIRE 640 272 640 224
WIRE 640 272 592 272
WIRE 736 272 736 224
WIRE 896 272 736 272
WIRE 960 272 896 272
WIRE 1072 272 1040 272
WIRE 640 320 640 272
WIRE 656 320 640 320
WIRE 736 320 736 272
WIRE 976 400 976 352
WIRE 896 416 896 272
WIRE 944 416 896 416
WIRE 1072 432 1072 272
WIRE 1072 432 1008 432
WIRE 1120 432 1072 432
WIRE 1312 432 1200 432
WIRE 1504 432 1504 400
WIRE 480 448 400 448
WIRE 688 448 560 448
WIRE 944 448 688 448
WIRE 976 512 976 464
WIRE 1504 544 1504 512
WIRE 1504 544 1360 544
WIRE 1504 576 1504 544
WIRE 400 624 400 528
WIRE 688 640 688 512
WIRE 1504 704 1504 656
WIRE 944 752 656 752
WIRE 1168 784 1136 784
WIRE 1696 816 1696 784
WIRE 1168 832 1168 784
WIRE 1184 832 1168 832
WIRE 656 848 656 752
WIRE 736 848 656 848
WIRE 1360 848 1248 848
WIRE 1472 848 1440 848
WIRE 944 864 944 752
WIRE 944 864 800 864
WIRE 960 864 944 864
WIRE 1184 864 1008 864
WIRE 512 880 384 880
WIRE 736 880 592 880
WIRE 1696 928 1696 896
WIRE 1696 928 1552 928
WIRE 384 960 384 880
WIRE 1696 960 1696 928
WIRE 1696 1088 1696 1040
WIRE 384 1136 384 1040
WIRE 1664 1680 1664 1600
WIRE 1664 1680 1600 1680
WIRE 1424 1696 1136 1696
WIRE 2624 1728 2624 1696
WIRE 1600 1776 1600 1680
WIRE 1632 1776 1600 1776
WIRE 1136 1792 1136 1696
WIRE 1216 1792 1136 1792
WIRE 1728 1792 1696 1792
WIRE 1840 1792 1728 1792
WIRE 1952 1792 1920 1792
WIRE 1424 1808 1424 1696
WIRE 1424 1808 1280 1808
WIRE 1552 1808 1488 1808
WIRE 1616 1808 1552 1808
WIRE 1632 1808 1616 1808
WIRE 992 1824 864 1824
WIRE 1216 1824 1072 1824
WIRE 2624 1840 2624 1808
WIRE 2624 1840 2480 1840
WIRE 2624 1872 2624 1840
WIRE 864 1904 864 1824
WIRE 1616 1904 1616 1808
WIRE 1632 1904 1616 1904
WIRE 1728 1904 1728 1792
WIRE 1728 1904 1712 1904
WIRE 2624 2000 2624 1952
WIRE 864 2080 864 1984
FLAG 1360 544 0
FLAG 1504 704 vn
FLAG 1504 400 vp
FLAG 592 272 0
FLAG 768 896 0
FLAG 768 832 vp2
FLAG 1056 784 0
FLAG 1216 816 vp2
FLAG 1216 880 0
FLAG 400 624 0
FLAG 688 640 0
FLAG 1312 432 Vout.analog
FLAG 1472 848 vout.digital
FLAG 1696 1088 vn2
FLAG 1696 784 vp2
FLAG 1552 928 0
FLAG 976 512 0
FLAG 976 352 vp
FLAG 384 1136 0
FLAG 1248 1840 0
FLAG 1248 1776 vp2
FLAG 1952 1792 voutDigiuus
FLAG 2624 2000 vn3
FLAG 2624 1696 vp3
FLAG 2480 1840 0
FLAG 864 2080 0
FLAG 1552 1888 0
FLAG 1664 1824 0
FLAG 1504 1600 0
FLAG 1664 1760 vp3
FLAG 1744 1600 0
FLAG 1008 944 0
SYMBOL voltage 400 432 R0
WINDOW 123 0 0 Left 0
WINDOW 39 0 0 Left 0
SYMATTR InstName V2
SYMATTR Value SINE(0 3.65 60)
SYMBOL res 1056 256 R90
WINDOW 0 0 56 VBottom 2
WINDOW 3 32 56 VTop 2
SYMATTR InstName R1
SYMATTR Value 22k
SYMBOL voltage 1504 416 R0
SYMATTR InstName V1
SYMATTR Value 5
SYMBOL voltage 1504 560 R0
SYMATTR InstName V3
SYMATTR Value 5
SYMBOL res 576 432 R90
WINDOW 0 0 56 VBottom 2
WINDOW 3 32 56 VTop 2
SYMATTR InstName R3
SYMATTR Value 120k
SYMBOL Res 1216 416 R90
WINDOW 0 0 56 VBottom 2
WINDOW 3 32 56 VTop 2
SYMATTR InstName R5
SYMATTR Value 2.7k
SYMBOL Res 752 208 R90
WINDOW 0 0 56 VBottom 2
WINDOW 3 32 56 VTop 2
SYMATTR InstName R2
SYMATTR Value 22k
SYMBOL Res 752 304 R90
WINDOW 0 0 56 VBottom 2
WINDOW 3 32 56 VTop 2
SYMATTR InstName R6
SYMATTR Value 22k
SYMBOL cap 672 448 R0
SYMATTR InstName C1
SYMATTR Value 470pF
SYMBOL voltage 384 944 R0
WINDOW 123 0 0 Left 0
WINDOW 39 0 0 Left 0
SYMATTR InstName V4
SYMATTR Value PULSE(0 2 0 1n 1n 20m 40m)
SYMBOL res 608 864 R90
WINDOW 0 0 56 VBottom 2
WINDOW 3 32 56 VTop 2
SYMATTR InstName R7
SYMATTR Value 120k
SYMBOL Res 1456 832 R90
WINDOW 0 0 56 VBottom 2
WINDOW 3 32 56 VTop 2
SYMATTR InstName R8
SYMATTR Value 2.7k
SYMBOL OpAmps\\UniversalOpAmp2 768 864 R0
SYMATTR InstName U3
SYMBOL cap 1008 848 R90
WINDOW 0 0 32 VBottom 2
WINDOW 3 32 32 VTop 2
SYMATTR InstName C2
SYMATTR Value 1µ
SYMBOL voltage 1152 784 R90
WINDOW 0 -32 56 VBottom 2
WINDOW 3 32 56 VTop 2
SYMATTR InstName V5
SYMATTR Value 1.6
SYMBOL OpAmps\\UniversalOpAmp2 1216 848 R0
SYMATTR InstName U2
SYMBOL voltage 1696 800 R0
SYMATTR InstName V6
SYMATTR Value 5
SYMBOL voltage 1696 944 R0
SYMATTR InstName V7
SYMATTR Value 5
SYMBOL OpAmps\\UniversalOpAmp2 976 432 R0
SYMATTR InstName U4
SYMBOL voltage 864 1888 R0
WINDOW 123 0 0 Left 0
WINDOW 39 0 0 Left 0
SYMATTR InstName V8
SYMATTR Value PULSE(0 2 0 1n 1n 20m 40m)
SYMBOL res 1088 1808 R90
WINDOW 0 0 56 VBottom 2
WINDOW 3 32 56 VTop 2
SYMATTR InstName R4
SYMATTR Value 120k
SYMBOL Res 1936 1776 R90
WINDOW 0 0 56 VBottom 2
WINDOW 3 32 56 VTop 2
SYMATTR InstName R10
SYMATTR Value 2.7k
SYMBOL OpAmps\\UniversalOpAmp2 1248 1808 R0
SYMATTR InstName U1
SYMBOL voltage 2624 1712 R0
SYMATTR InstName V10
SYMATTR Value 5
SYMBOL voltage 2624 1856 R0
SYMATTR InstName V11
SYMATTR Value 5
SYMBOL cap 1488 1792 R90
WINDOW 0 0 32 VBottom 2
WINDOW 3 32 32 VTop 2
SYMATTR InstName C4
SYMATTR Value 1µ
SYMBOL res 1568 1904 R180
WINDOW 0 36 76 Left 2
WINDOW 3 36 40 Left 2
SYMATTR InstName R12
SYMATTR Value 1k
SYMBOL OpAmps\\UniversalOpAmp2 1664 1792 R0
SYMATTR InstName U6
SYMBOL voltage 1600 1600 R90
WINDOW 0 -32 56 VBottom 2
WINDOW 3 32 56 VTop 2
WINDOW 123 0 0 Left 0
WINDOW 39 0 0 Left 0
SYMATTR InstName V12
SYMATTR Value 5
SYMBOL res 1728 1888 R90
WINDOW 0 0 56 VBottom 2
WINDOW 3 32 56 VTop 2
SYMATTR InstName R14
SYMATTR Value 50k
SYMBOL res 1680 1584 R90
WINDOW 0 0 56 VBottom 2
WINDOW 3 32 56 VTop 2
SYMATTR InstName R13
SYMATTR Value 3k
SYMBOL res 1760 1584 R90
WINDOW 0 0 56 VBottom 2
WINDOW 3 32 56 VTop 2
SYMATTR InstName R11
SYMATTR Value 100
SYMBOL res 992 848 R0
SYMATTR InstName R9
SYMATTR Value 1000
TEXT 344 1240 Left 2 !.tran 100m
