Version 4
SHEET 1 880 680
WIRE 480 32 432 32
WIRE 608 32 560 32
WIRE 64 80 -32 80
WIRE 224 80 144 80
WIRE 352 80 224 80
WIRE 416 80 352 80
WIRE -32 96 -32 80
WIRE 224 96 224 80
WIRE 432 96 432 32
WIRE 480 96 432 96
WIRE 608 112 608 32
WIRE 608 112 544 112
WIRE 672 112 608 112
WIRE 784 112 736 112
WIRE 416 128 416 80
WIRE 480 128 416 128
WIRE 224 176 224 160
WIRE 224 176 -32 176
WIRE 288 176 224 176
WIRE 432 176 432 96
WIRE 432 176 368 176
FLAG 784 112 Vout
FLAG 352 80 Vin
SYMBOL Misc\\signal -32 80 R0
SYMATTR InstName V1
SYMBOL res 160 64 R90
WINDOW 0 0 56 VBottom 2
WINDOW 3 32 56 VTop 2
SYMATTR InstName R1
SYMBOL cap 208 96 R0
SYMATTR InstName C1
SYMBOL OpAmps\\RH1498 512 48 R0
SYMATTR InstName U1
SYMBOL res 576 16 R90
WINDOW 0 0 56 VBottom 2
WINDOW 3 32 56 VTop 2
SYMATTR InstName RF
SYMATTR Value 20K
SYMBOL res 384 160 R90
WINDOW 0 0 56 VBottom 2
WINDOW 3 32 56 VTop 2
SYMATTR InstName R2
SYMATTR Value 10K
SYMBOL zener 672 128 R270
WINDOW 0 36 32 VTop 2
WINDOW 3 -4 32 VBottom 2
SYMATTR InstName D1
