Version 4
SHEET 1 3448 920
WIRE 656 224 640 224
WIRE 640 272 640 224
WIRE 640 272 592 272
WIRE 736 272 736 224
WIRE 896 272 736 272
WIRE 960 272 896 272
WIRE 1072 272 1040 272
WIRE 640 320 640 272
WIRE 656 320 640 320
WIRE 736 320 736 272
WIRE 896 416 896 272
WIRE 944 416 896 416
WIRE 1296 416 1296 384
WIRE 1072 432 1072 272
WIRE 1072 432 1008 432
WIRE 1120 432 1072 432
WIRE 1232 432 1200 432
WIRE 480 448 400 448
WIRE 688 448 560 448
WIRE 944 448 688 448
WIRE 864 512 688 512
WIRE 1296 528 1296 496
WIRE 1296 528 1152 528
WIRE 1296 560 1296 528
WIRE 400 624 400 528
WIRE 864 624 864 512
WIRE 864 624 400 624
WIRE 1296 688 1296 640
WIRE 864 704 864 624
FLAG 1152 528 0
FLAG 1296 688 vn
FLAG 1296 384 vp
FLAG 976 400 vp
FLAG 976 464 vn
FLAG 864 704 0
FLAG 592 272 0
SYMBOL voltage 400 432 R0
WINDOW 123 0 0 Left 0
WINDOW 39 0 0 Left 0
SYMATTR InstName V2
SYMATTR Value SINE(0 2 60)
SYMBOL OP07 976 368 R0
SYMATTR InstName U1
SYMBOL res 1056 256 R90
WINDOW 0 0 56 VBottom 2
WINDOW 3 32 56 VTop 2
SYMATTR InstName R1
SYMATTR Value 22k
SYMBOL voltage 1296 400 R0
SYMATTR InstName V1
SYMATTR Value 5
SYMBOL voltage 1296 544 R0
SYMATTR InstName V3
SYMATTR Value 5
SYMBOL res 576 432 R90
WINDOW 0 0 56 VBottom 2
WINDOW 3 32 56 VTop 2
SYMATTR InstName R3
SYMATTR Value 120k
SYMBOL Res 1216 416 R90
WINDOW 0 0 56 VBottom 2
WINDOW 3 32 56 VTop 2
SYMATTR InstName R5
SYMATTR Value 2.7k
SYMBOL Res 752 208 R90
WINDOW 0 0 56 VBottom 2
WINDOW 3 32 56 VTop 2
SYMATTR InstName R2
SYMATTR Value 22k
SYMBOL Res 752 304 R90
WINDOW 0 0 56 VBottom 2
WINDOW 3 32 56 VTop 2
SYMATTR InstName R6
SYMATTR Value 22k
SYMBOL cap 672 448 R0
SYMATTR InstName C1
SYMATTR Value 470pF
TEXT 1120 712 Left 2 !.tran 100m
